*INCLUDE, INPUT=meshsolid_multi.inp
*NSET, NSET=FIX
	85,	86,	87,	88,	89,	90,	91,	92,	93,	94,	
	95,	96,	97,	98,	99,	100,	101,	102,	103,	104,	
	105,	106,	107,	108,	109,	110,	111,	112,	113,	114,	
	131,	133,	137,	138,	139,	140,	142,	144,	145,	146,	
	147,	149,	150,	153,	154,	156,	157,	160,	164,	165,	
	166,	167,	168,	169,	170,	171,	172,	173,	174,	175,	
	176,	177,	178,	179,	289,	290,	291,	292,	293,	294,	
	295,	296,	297,	298,	299,	300,	301,	302,	303,	304,	
	305,	306,	307,	308,	309,	310,	311,	312,	313,	314,	
	315,	316,	317,	318,	319,	320,	321,	322,	323,	324,	
	325,	326,	327,	328,	329,	330,	331,	332,	333,	334,	
	335,	336,	337,	338,	339,	340,	341,	342,	343,	344,	
	345,	346,	347,	348,	349,	350,	351,	352,	433,	434,	
	435,	436,	437,	438,	439,	440,	441,	442,	443,	444,	
	445,	446,	447,	448,	449,	450,	451,	452,	453,	454,	
	455,	456,	457,	458,	459,	460,	461,	462,	463,	464,	
	465,	466,	467,	468,	469,	470,	471,	472,	473,	474,	
	475,	476,	477,	478,	479,	480,	481,	482,	483,	484,	
	485,	486,	487,	488,	489,	490,	491,	492,	664,	665,	
	666,	667,	668,	669,	670,	671,	672,	673,	674,	675,	
** ... 6 like lines cut
*BOUNDARY 
FIX, 1
*BOUNDARY 
FIX, 2
*BOUNDARY 
FIX, 3
*NSET, NSET=Nall, GENERATE
1,49242
*MATERIAL, NAME=PDMS
*ELASTIC 
2820.0,	0.421
*SOLID SECTION, ELSET=Volume0, MATERIAL=PDMS
*MATERIAL, NAME=GLASS
*ELASTIC 
50000000.0,	0.18
*SOLID SECTION, ELSET=Volume1, MATERIAL=GLASS
*NSET, NSET=LOAD85
85
*NSET, NSET=LOAD86
86
*NSET, NSET=LOAD87
87
*NSET, NSET=LOAD90
90
*NSET, NSET=LOAD92
92
*NSET, NSET=LOAD93
93
*NSET, NSET=LOAD95
95
*NSET, NSET=LOAD96
96
*NSET, NSET=LOAD97
97
*NSET, NSET=LOAD98
98
*NSET, NSET=LOAD99
99
*NSET, NSET=LOAD100
100
*NSET, NSET=LOAD101
101
*NSET, NSET=LOAD102
102
*NSET, NSET=LOAD103
103
*NSET, NSET=LOAD104
104
*NSET, NSET=LOAD105
105
*NSET, NSET=LOAD107
107
*NSET, NSET=LOAD108
108
*NSET, NSET=LOAD112
112
** ... 2620 like lines cut
**
*STEP
*STATIC
*CLOAD
LOAD85, 3, -0.0514460830786
LOAD86, 3, -0.0471568175862
LOAD87, 3, 0.0531037887971
LOAD90, 3, -0.0364221265599
LOAD92, 3, 0.0101707245024
LOAD93, 3, -0.0370173916324
LOAD95, 3, -0.0411639058956
LOAD96, 3, -0.0471458429108
LOAD97, 3, -0.0515529542269
LOAD98, 3, -0.125766915121
LOAD99, 3, -0.0401623804394
LOAD100, 3, -0.0111008619721
LOAD101, 3, 0.0215806217785
LOAD102, 3, 0.0315498008117
LOAD103, 3, 0.0591830420817
LOAD104, 3, 0.0468492664996
LOAD105, 3, 0.0513986346412
LOAD107, 3, -0.113048234992
LOAD108, 3, -0.0264667652446
LOAD112, 3, 0.0336778951614
** ... 1310 like lines cut
*NODE PRINT, NSET=Nall
U
*EL PRINT, ELSET=Volume0
S
*NODE FILE
U
*EL FILE
S
*END STEP
